<?xml version="1.0" encoding="UTF-8"?>

<!-- generated on 2024-09-16 09:17:11 by Eclipse SUMO netedit Version 1.19.0
-->

<routes xmlns:xsi="http://www.w3.org/2001/XMLSchema-instance" xsi:noNamespaceSchemaLocation="http://sumo.dlr.de/xsd/routes_file.xsd">
    <!-- VTypes -->
    <vType id="pt_bus_015" length="6.00" minGap="1.00" vClass="bus" guiShape="passenger/van" width="2.04" height="2.30" color="grey" personCapacity="32" emergencyDecel="5"/>
    <vType id="pt_bus_017" length="6.00" minGap="1.00" vClass="bus" guiShape="passenger/van" width="2.04" height="2.30" color="grey" personCapacity="32" emergencyDecel="5"/>
    <vType id="pt_bus_104" length="6.00" minGap="1.00" vClass="bus" guiShape="passenger/van" width="2.04" height="2.30" color="grey" personCapacity="32" emergencyDecel="5"/>
    <vType id="pt_bus_105" length="6.00" minGap="1.00" vClass="bus" guiShape="passenger/van" width="2.04" height="2.30" color="grey" personCapacity="32" emergencyDecel="5"/>
    <vType id="pt_bus_106" length="6.00" minGap="1.00" vClass="bus" guiShape="passenger/van" width="2.04" height="2.30" color="grey" personCapacity="32" emergencyDecel="5"/>
    <vType id="pt_bus_109" length="6.00" minGap="1.00" speedFactor="normc(0.70,0.00)" vClass="bus" guiShape="delivery" width="2.04" height="2.30" color="yellow" personCapacity="35" emergencyDecel="5" tau="1"/>
    <vType id="pt_bus_110" length="6.00" minGap="1.00" speedFactor="normc(0.70,0.00)" vClass="bus" guiShape="delivery" width="2.04" height="2.30" color="blue" personCapacity="35" emergencyDecel="5" tau="1"/>
    <vType id="pt_bus_112" length="6.00" minGap="1.00" vClass="bus" guiShape="passenger/van" width="2.04" height="2.30" color="grey" personCapacity="32" emergencyDecel="5"/>
    <vType id="pt_bus_113" length="6.00" minGap="1.00" vClass="bus" guiShape="passenger/van" width="2.04" height="2.30" color="grey" personCapacity="32" emergencyDecel="5"/>
    <vType id="pt_bus_114" length="6.00" minGap="1.00" vClass="bus" guiShape="passenger/van" width="2.04" height="2.30" color="grey" personCapacity="32" emergencyDecel="5"/>
    <vType id="pt_bus_115" length="6.00" minGap="1.00" vClass="bus" guiShape="passenger/van" width="2.04" height="2.30" color="grey" personCapacity="32" emergencyDecel="5"/>
    <vType id="pt_bus_116" length="6.00" minGap="1.00" vClass="bus" guiShape="passenger/van" width="2.04" height="2.30" color="grey" personCapacity="32" emergencyDecel="5"/>
    <vType id="pt_bus_117" length="6.00" minGap="1.00" vClass="bus" guiShape="passenger/van" width="2.04" height="2.30" color="grey" personCapacity="32" emergencyDecel="5"/>
    <vType id="pt_bus_119" length="6.00" minGap="1.00" speedFactor="normc(0.70,0.00)" vClass="bus" guiShape="delivery" width="2.04" height="2.30" color="grey" personCapacity="35" emergencyDecel="5" tau="1"/>
    <vType id="pt_bus_120" length="6.00" minGap="1.00" vClass="bus" guiShape="passenger/van" width="2.04" height="2.30" color="grey" personCapacity="32" emergencyDecel="5"/>
    <vType id="pt_bus_122" length="6.00" minGap="1.00" vClass="bus" guiShape="passenger/van" width="2.04" height="2.30" color="white" personCapacity="32" emergencyDecel="5"/>
    <vType id="pt_bus_123" length="6.00" minGap="1.00" vClass="bus" guiShape="passenger/van" width="2.04" height="2.30" color="white" personCapacity="32" emergencyDecel="5"/>
    <vType id="pt_bus_125" length="6.00" minGap="1.00" vClass="bus" guiShape="passenger/van" width="2.04" height="2.30" color="grey" personCapacity="32" emergencyDecel="5"/>
    <vType id="pt_bus_126" length="6.00" minGap="1.00" speedFactor="normc(0.70,0.00)" vClass="bus" guiShape="delivery" width="2.04" height="2.30" color="yellow" personCapacity="35" emergencyDecel="5" tau="1"/>
    <vType id="pt_bus_127" length="6.00" minGap="1.00" vClass="bus" guiShape="passenger/van" width="2.04" height="2.30" color="grey" personCapacity="32" emergencyDecel="5"/>
    <vType id="pt_bus_128" length="6.00" minGap="1.00" vClass="bus" guiShape="passenger/van" width="2.04" height="2.30" color="grey" personCapacity="32" emergencyDecel="5"/>
    <vType id="pt_bus_129" length="6.00" minGap="1.00" vClass="bus" guiShape="passenger/van" width="2.04" height="2.30" color="grey" personCapacity="32" emergencyDecel="5"/>
    <vType id="pt_bus_133" length="6.00" minGap="1.00" speedFactor="normc(0.70,0.00)" vClass="bus" guiShape="delivery" width="2.04" height="2.30" color="red" personCapacity="35" emergencyDecel="5" tau="1"/>
    <vType id="pt_bus_134" length="6.00" minGap="1.00" vClass="bus" guiShape="passenger/van" width="2.04" height="2.30" color="grey" personCapacity="32" emergencyDecel="5"/>
    <vType id="pt_bus_135" length="6.00" minGap="1.00" vClass="bus" guiShape="passenger/van" width="2.04" height="2.30" color="white" personCapacity="32" emergencyDecel="5"/>
    <vType id="pt_bus_136" length="6.00" minGap="1.00" speedFactor="normc(0.70,0.00)" vClass="bus" guiShape="delivery" width="2.04" height="2.30" color="yellow" personCapacity="35" emergencyDecel="5" tau="1"/>
    <vType id="pt_bus_137" length="6.00" minGap="1.00" vClass="bus" guiShape="passenger/van" width="2.04" height="2.30" color="grey" personCapacity="32" emergencyDecel="5"/>
    <vType id="pt_bus_138" length="6.00" minGap="1.00" speedFactor="normc(0.70,0.00)" vClass="bus" guiShape="delivery" width="2.04" height="2.30" color="blue" personCapacity="35" emergencyDecel="5" tau="1"/>
    <vType id="pt_bus_139" length="6.00" minGap="1.00" vClass="bus" guiShape="passenger/van" width="2.04" height="2.30" color="white" personCapacity="32" emergencyDecel="5"/>
    <vType id="pt_bus_140_A" length="6.00" minGap="1.00" speedFactor="normc(0.70,0.00)" vClass="bus" guiShape="delivery" width="2.04" height="2.30" color="blue" personCapacity="35" emergencyDecel="5" tau="1"/>
    <vType id="pt_bus_141" length="6.00" minGap="1.00" speedFactor="normc(0.70,0.00)" vClass="bus" guiShape="delivery" width="2.04" height="2.30" color="yellow" personCapacity="35" emergencyDecel="5" tau="1"/>
    <vType id="pt_bus_143" length="6.00" minGap="1.00" speedFactor="normc(0.70,0.00)" vClass="bus" guiShape="delivery" width="2.04" height="2.30" color="blue" personCapacity="35" emergencyDecel="5" tau="1"/>
    <vType id="pt_bus_144" length="6.00" minGap="1.00" vClass="bus" guiShape="passenger/van" width="2.04" height="2.30" color="white" personCapacity="32" emergencyDecel="5"/>
    <vType id="pt_bus_146_manga" length="6.00" minGap="1.00" vClass="bus" guiShape="passenger/van" width="2.04" height="2.30" color="white" personCapacity="32" emergencyDecel="5"/>
    <vType id="pt_bus_146_mena" length="6.00" minGap="1.00" vClass="bus" guiShape="passenger/van" width="2.04" height="2.30" color="white" personCapacity="32" emergencyDecel="5"/>
    <vType id="pt_bus_147_D_mena" length="6.00" minGap="1.00" vClass="bus" guiShape="passenger/van" width="2.04" height="2.30" color="white" personCapacity="32" emergencyDecel="5"/>
    <vType id="pt_bus_147_manga" length="6.00" minGap="1.00" vClass="bus" guiShape="passenger/van" width="2.04" height="2.30" color="white" personCapacity="32" emergencyDecel="5"/>
    <vType id="pt_bus_147_mena" length="6.00" minGap="1.00" vClass="bus" guiShape="passenger/van" width="2.04" height="2.30" color="white" personCapacity="32" emergencyDecel="5"/>
    <vType id="pt_bus_150" length="6.00" minGap="1.00" speedFactor="normc(0.70,0.00)" vClass="bus" guiShape="delivery" width="2.04" height="2.30" color="green" personCapacity="35" emergencyDecel="5" tau="1"/>
    <vType id="pt_bus_151" length="6.00" minGap="1.00" vClass="bus" guiShape="passenger/van" width="2.04" height="2.30" color="grey" personCapacity="32" emergencyDecel="5"/>
    <vType id="pt_bus_153" length="6.00" minGap="1.00" speedFactor="normc(0.70,0.00)" vClass="bus" guiShape="delivery" width="2.04" height="2.30" color="green" personCapacity="35" emergencyDecel="5" tau="1"/>
    <vType id="pt_bus_157" length="6.00" minGap="1.00" speedFactor="normc(0.70,0.00)" vClass="bus" guiShape="delivery" width="2.04" height="2.30" color="green" personCapacity="35" emergencyDecel="5" tau="1"/>
    <vType id="pt_bus_159" length="6.00" minGap="1.00" vClass="bus" guiShape="passenger/van" width="2.04" height="2.30" color="grey" personCapacity="32" emergencyDecel="5"/>
    <vType id="pt_bus_160" length="6.00" minGap="1.00" speedFactor="normc(0.70,0.00)" vClass="bus" guiShape="delivery" width="2.04" height="2.30" color="green" personCapacity="35" emergencyDecel="5" tau="1"/>
    <vType id="pt_bus_161" length="6.00" minGap="1.00" vClass="bus" guiShape="passenger/van" width="2.04" height="2.30" color="grey" personCapacity="32" emergencyDecel="5"/>
    <vType id="pt_bus_162" length="6.00" minGap="1.00" speedFactor="normc(0.70,0.00)" vClass="bus" guiShape="delivery" width="2.04" height="2.30" color="green" personCapacity="35" emergencyDecel="5" tau="1"/>
    <vType id="pt_bus_163" length="6.00" minGap="1.00" speedFactor="normc(0.70,0.00)" vClass="bus" guiShape="delivery" width="2.04" height="2.30" color="green" personCapacity="35" emergencyDecel="5" tau="1"/>
    <vType id="pt_bus_164" length="6.00" minGap="1.00" vClass="bus" guiShape="passenger/van" width="2.04" height="2.30" color="grey" personCapacity="32" emergencyDecel="5"/>
    <vType id="pt_bus_165" length="6.00" minGap="1.00" speedFactor="normc(0.70,0.00)" vClass="bus" guiShape="delivery" width="2.04" height="2.30" color="green" personCapacity="35" emergencyDecel="5" tau="1"/>
    <vType id="pt_bus_166" length="6.00" minGap="1.00" speedFactor="normc(0.70,0.00)" vClass="bus" guiShape="delivery" width="2.04" height="2.30" color="green" personCapacity="35" emergencyDecel="5" tau="1"/>
    <vType id="pt_bus_172" length="6.00" minGap="1.00" vClass="bus" guiShape="passenger/van" width="2.04" height="2.30" color="grey" personCapacity="32" emergencyDecel="5"/>
    <vType id="pt_bus_178_mena" length="6.00" minGap="1.00" vClass="bus" guiShape="passenger/van" width="2.04" height="2.30" color="white" personCapacity="32" emergencyDecel="5"/>
    <vType id="pt_bus_180" length="6.00" minGap="1.00" vClass="bus" guiShape="passenger/van" width="2.04" height="2.30" color="grey" personCapacity="32" emergencyDecel="5"/>
    <vType id="pt_bus_182_manga" length="6.00" minGap="1.00" vClass="bus" guiShape="passenger/van" width="2.04" height="2.30" color="grey" personCapacity="32" emergencyDecel="5"/>
    <vType id="pt_bus_182_mena" length="6.00" minGap="1.00" vClass="bus" guiShape="passenger/van" width="2.04" height="2.30" color="grey" personCapacity="32" emergencyDecel="5"/>
    <vType id="pt_bus_183" length="6.00" minGap="1.00" speedFactor="normc(0.70,0.00)" vClass="bus" guiShape="delivery" width="2.04" height="2.30" color="green" personCapacity="35" emergencyDecel="5" tau="1"/>
    <vType id="pt_bus_184" length="6.00" minGap="1.00" vClass="bus" guiShape="passenger/van" width="2.04" height="2.30" color="grey" personCapacity="32" emergencyDecel="5"/>
    <vType id="pt_bus_186" length="6.00" minGap="1.00" speedFactor="normc(0.70,0.00)" vClass="bus" guiShape="delivery" width="2.04" height="2.30" color="green" personCapacity="35" emergencyDecel="5" tau="1"/>
    <vType id="pt_bus_187" length="6.00" minGap="1.00" vClass="bus" guiShape="passenger/van" width="2.04" height="2.30" color="grey" personCapacity="32" emergencyDecel="5"/>
    <vType id="pt_bus_190" length="6.00" minGap="1.00" vClass="bus" guiShape="passenger/van" width="2.04" height="2.30" color="grey" personCapacity="32" emergencyDecel="5"/>
    <vType id="pt_bus_192" length="6.00" minGap="1.00" speedFactor="normc(0.70,0.00)" vClass="bus" guiShape="delivery" width="2.04" height="2.30" color="blue" personCapacity="35" emergencyDecel="5" tau="1"/>
    <vType id="pt_bus_193" length="6.00" minGap="1.00" speedFactor="normc(0.70,0.00)" vClass="bus" guiShape="delivery" width="2.04" height="2.30" color="green" personCapacity="35" emergencyDecel="5" tau="1"/>
    <vType id="pt_bus_194_A" length="6.00" minGap="1.00" vClass="bus" guiShape="passenger/van" width="2.04" height="2.30" color="grey" personCapacity="32" emergencyDecel="5"/>
    <vType id="pt_bus_194_B" length="6.00" minGap="1.00" vClass="bus" guiShape="passenger/van" width="2.04" height="2.30" color="grey" personCapacity="32" emergencyDecel="5"/>
    <vType id="pt_bus_194_C" length="6.00" minGap="1.00" vClass="bus" guiShape="passenger/van" width="2.04" height="2.30" color="grey" personCapacity="32" emergencyDecel="5"/>
    <vType id="pt_bus_196" length="6.00" minGap="1.00" vClass="bus" guiShape="passenger/van" width="2.04" height="2.30" color="grey" personCapacity="32" emergencyDecel="5"/>
    <vType id="pt_bus_199" length="6.00" minGap="1.00" vClass="bus" guiShape="passenger/van" width="2.04" height="2.30" color="grey" personCapacity="32" emergencyDecel="5"/>
    <!-- Routes -->
    <route id="tj_015_Mandroseza" edges="562415279#2 605943528#0 605943528#1 605943528#2 605943528#3 28884220#0 28884220#1 28884220#3 28884220#4 28884220#5 28884220#6 28884220#7 28884220#8 28884220#9 28884376#0 28884376#1 28884376#2 28884376#3 28884376#4 28884376#5 28884376#7 28884526#0 28884526#1 28884526#2 28884526#3 562410567 402955432 -183432426#5 -183432426#4 -183432426#3 -183432426#2 -183432426#1 -183432426#0 562410568 183432424 -28884766#11 -28884766#10 -28884766#9 -28884766#8 -28884766#7 -28884766#6 -28884766#5 -28884766#3 -28884766#2 -28884766#1 -28884766#0 414261191#0 28884756 577152036#1 577152036#2 577152036#3 577152036#4 577152036#5 577152036#6 577152036#7 577152036#8 577152036#9 28884762#0 28884762#1 28884762#2 28884762#3 28884762#5 28884762#6 31509625 31509630#0 31509630#1 31509630#2 31509630#3 31509630#4 31509630#5 31509630#6 31509630#7 31509630#8 1068108095#0 1068108095#1 28915059 579806052 28915083#0 28915083#1 912627253 312190366 312190372 312190376 312190378 28915101#0 28915101#1 531720056#1 28929839#0 28929839#1 28929839#2 28929839#2.70 28929839#2.113 186255407 28929933#0 28929933#0.86 28929933#0.143 28929933#1 563824686 561230937 28929959 28929965 414267256 569419828 28928896#2 683253983#0 683253983#2 76724727 414267257#0 414267257#1 563824685 28928912#0 28928912#1 639908578 565743354#1 565743354#2 565743354#3 28916467#0 28916467#1 28916467#2 580927384#1 578006710#1 578006710#2 578006710#3 E18 28823665#1 28823665#2 28823665#3 28823665#4 28823665#5 -312190409#2 -312190409#1 -312190409#0 566974049 565308247 301651720#1 301651720#2 28916404#0 28916404#1 28916404#2 28916404#3 28916404#4 186255418 E8 28928889#1 28928889#2 580875733#0 580875733#1 431446409#0 431446409#1 431446409#2 431446409#3 431446409#4 186255405#0 186255405#1 31509525 683253986 683253985 28928888#1 28929952#0 28929952#1 564931058 28929928#0 28929928#1 28929928#2 186255411#0 186255411#1 186255411#2 178550874#0 178550874#0.49 178550874#1 178550874#2 178550874#3 580966913#1 28823139 186255416 28914917#0 28914917#1 E19 E20 566072906 563866209 565376847 30407992 28914865#0 28914865#1 28914865#4 31509627 -28884762#6 -28884762#5 -28884762#3 -28884762#2 -28884762#1 -28884762#0 -577152036#9 -577152036#8 -577152036#7 -577152036#6 -577152036#5 -577152036#4 -577152036#3 -577152036#2 -577152036#1 -577152036#0 566118477 567342956 28884766#0 28884766#1 28884766#2 28884766#3 28884766#5 28884766#6 28884766#7 28884766#8 28884766#9 28884766#10 28884766#11 402955438 183432426#0 183432426#1 183432426#2 183432426#3 183432426#4 183432426#5 337795887 -28884526#3 -28884526#2 -28884526#1 -28884526#0 -28884376#7 -28884376#5 -28884376#4 -28884376#3 -28884376#2 -28884376#1 -28884376#0 -28884220#9 -28884220#8 -28884220#7 -28884220#6 -28884220#5 -28884220#4 -28884220#3 -28884220#1 -28884220#0 -605943528#3 -605943528#2 -605943528#1 -605943528#0 -562415279#2" color="0,0,129">
        <stop busStop="bs_26028_1_1" duration="60.00"/>
        <stop busStop="bs_2820_4_1" duration="60.00"/>
        <stop busStop="bs_2820_9_1" duration="60.00"/>
        <stop busStop="bs_2876_3" duration="60.00"/>
        <stop busStop="bs_2876_5" duration="60.00"/>
        <stop busStop="bs_2826_3" duration="60.00"/>
        <stop busStop="bs_2866_3_1" duration="60.00"/>
        <stop busStop="bs_2866_2" duration="60.00"/>
        <stop busStop="ter_10120056" duration="60.00"/>
        <stop busStop="bs_1012892" duration="60.00"/>
        <stop busStop="bs_10128921" duration="60.00"/>
        <stop busStop="bs_5628_1" duration="60.00"/>
        <stop busStop="bs_4157_0" duration="60.00"/>
        <stop busStop="bs_4157" duration="60.00"/>
        <stop busStop="bs_6378_1" duration="60.00"/>
        <stop busStop="bs_5710" duration="60.00"/>
        <stop busStop="bs_2865_3" duration="60.00"/>
        <stop busStop="bs_2865_5" duration="60.00"/>
        <stop busStop="bs_5649_1" duration="60.00"/>
        <stop busStop="bs_5649_1_1" duration="60.00"/>
        <stop busStop="bs_3020" duration="60.00"/>
        <stop busStop="bs_2804_3" duration="60.00"/>
        <stop busStop="bs_4309_0" duration="60.00"/>
        <stop busStop="bs_3125_1" duration="60.00"/>
        <stop busStop="bs_6885_1" duration="60.00"/>
        <stop busStop="bs_1011862" duration="60.00"/>
        <stop busStop="bs_1012891" duration="60.00"/>
        <stop busStop="bs_20_1" duration="60.00"/>
        <stop busStop="bs_20_1_0" duration="60.00"/>
        <stop busStop="bs_5606_1" duration="60.00"/>
        <stop busStop="bs_2865" duration="60.00"/>
        <stop busStop="bs_5736_9" duration="60.00"/>
        <stop busStop="bs_2866_1" duration="60.00"/>
        <stop busStop="bs_2866_3" duration="60.00"/>
        <stop busStop="bs_1826" duration="60.00"/>
        <stop busStop="bs_2876" duration="60.00"/>
        <stop busStop="bs_2820_9" duration="60.00"/>
        <stop busStop="bs_2828_5_1" duration="60.00"/>
        <stop busStop="bs_6028_1" duration="60.00"/>
        <param key="primus" value="Mandroseza"/>
        <param key="terminus" value="67ha"/>
    </route>
    <route id="tj_017_Ambohipo" edges="528675704 620504837 528675703 28884472#0 28884472#1 28884472#2 28884472#3 28884472#4 28884472#5 28884472#6 28884472#7 28884472#8 28884472#9 28884472#10 28884472#11 28884472#12 28884472#14 28884472#15 28884526#0 28884526#1 28884526#2 28884526#3 562410567 402955432 -183432426#5 -183432426#4 -183432426#3 -183432426#2 -183432426#1 -183432426#0 562410568 183432424 -28884766#11 -28884766#10 -28884766#9 -28884766#8 -28884766#7 -28884766#6 -28884766#5 -28884766#3 -28884766#2 -28884766#1 -28884766#0 414261191#0 28884756 577152036#1 577152036#2 577152036#3 577152036#4 577152036#5 577152036#6 577152036#7 577152036#8 577152036#9 28884762#0 28884762#1 28884762#2 28884762#3 28884762#5 28884762#6 31509625 31509630#0 31509630#1 31509630#2 31509630#3 31509630#4 31509630#5 31509630#6 31509630#7 31509630#8 1068108095#0 1068108095#1 28915059 579806052 312190312 563866210 28914941 -E20 E20 566072906 563866209 565376847 30407992 28914865#0 28914865#1 28914865#4 31509627 -28884762#6 -28884762#5 -28884762#3 -28884762#2 -28884762#1 -28884762#0 -577152036#9 -577152036#8 -577152036#7 -577152036#6 -577152036#5 -577152036#4 -577152036#3 -577152036#2 -577152036#1 -577152036#0 566118477 567342956 28884766#0 28884766#1 28884766#2 28884766#3 28884766#5 28884766#6 28884766#7 28884766#8 28884766#9 28884766#10 28884766#11 402955438 183432426#0 183432426#1 183432426#2 183432426#3 183432426#4 183432426#5 337795887 -28884526#3 -28884526#2 -28884526#1 -28884526#0 -28884472#15 -28884472#14 -28884472#12 -28884472#11 -28884472#10 -28884472#9 -28884472#8 -28884472#7 -28884472#6 -28884472#5 -28884472#4 -28884472#3 -28884472#2 -28884472#1 -28884472#0 -528675703 -620504837 -528675704" color="0,0,129">
        <stop busStop="bs_5204" duration="60.00"/>
        <stop busStop="bs_6237" duration="60.00"/>
        <stop busStop="bs_2872" duration="60.00"/>
        <stop busStop="bs_2872_6" duration="60.00"/>
        <stop busStop="bs_2872_8" duration="60.00"/>
        <stop busStop="bs_2872_10" duration="60.00"/>
        <stop busStop="bs_2872_12_2" duration="60.00"/>
        <stop busStop="bs_22872" duration="60.00"/>
        <stop busStop="bs_2826_3" duration="60.00"/>
        <stop busStop="bs_2866_3_1" duration="60.00"/>
        <stop busStop="bs_2866_2" duration="60.00"/>
        <stop busStop="bs_20_1" duration="60.00"/>
        <stop busStop="bs_20_1_0" duration="60.00"/>
        <stop busStop="bs_5606_1" duration="60.00"/>
        <stop busStop="bs_2865" duration="60.00"/>
        <stop busStop="bs_5736_9" duration="60.00"/>
        <stop busStop="bs_2866_1" duration="60.00"/>
        <stop busStop="bs_2866_3" duration="60.00"/>
        <stop busStop="bs_1826" duration="60.00"/>
        <stop busStop="bs_2872_15" duration="60.00"/>
        <stop busStop="bs_2872_12" duration="60.00"/>
        <stop busStop="bs_2872_11" duration="60.00"/>
        <stop busStop="bs_2872_7" duration="60.00"/>
        <stop busStop="bs_2872_4" duration="60.00"/>
        <stop busStop="bs_5204_1" duration="60.00"/>
        <param key="primus" value="Ambohipo"/>
        <param key="terminus" value="Mahamasina"/>
    </route>
    <route id="tj_104_Ambohimiandra" edges="685162907#1 685162907#2 685162907#3 685162907#4 685162907#5 -58198445#3 -58198445#2 -58198445#1 -58198445#0 -605930422#1 -605930422#0 -71194386#8 -71194386#7 -71194386#6 -71194386#5 -71194386#3 -71194386#2 -71194386#1 -76180048#1 -76180048#0 -28884272#4 -28884272#3 -28884272#2 28884272#2 28884272#3 28884272#4 28884272#5 76180048#1 71194386#1 71194386#2 71194386#3 71194386#5 71194386#6 71194386#7 71194386#8 605930422#0 605930422#1 58198445#0 58198445#1 58198445#2 58198445#3 -685162907#5 -685162907#4 -685162907#3 -685162907#2 -685162907#1" color="0,0,129">
        <stop busStop="bs_6851_5_1" duration="60.00"/>
        <stop busStop="bs_6022_1" duration="60.00"/>
        <stop busStop="bs_7186_7" duration="60.00"/>
        <stop busStop="bs_7186_1" duration="60.00"/>
        <stop busStop="bs_7186_1_0" duration="60.00"/>
        <stop busStop="bs_2872_3" duration="60.00"/>
        <stop busStop="bs_2872_2" duration="60.00"/>
        <stop busStop="bs_2872_4_1" duration="60.00"/>
        <stop busStop="bs_7186_1_1" duration="60.00"/>
        <stop busStop="bs_7186_7_1" duration="60.00"/>
        <stop busStop="bs_5845_0" duration="60.00"/>
        <stop busStop="bs_6807" duration="60.00"/>
        <param key="primus" value="Ambohimiandra"/>
        <param key="terminus" value="Ankadimbahoaka"/>
    </route>
    <route id="tj_105_Ambohimanarina" edges="-576398418#1 -576398418#0 -60334478#12 -60334478#11 -60334478#10 -60334478#9 -60334478#8 -60334478#7 -60334478#6 -60334478#5 -60334478#4 -60334478#3 -60334478#2 -60334478#1 -60334478#0 -566255286#4 -566255286#3 -566255286#2 -566255286#1 -566255286#0 -685442884#1 -685442884#0 -285244803#2 -285244803#1 -285244803#0 -45822991#1 -45822991#0 -46414900#1 -46414900#0 -46414897#5 -46414897#4 -46414897#3 -46414897#2 -46414897#1 -46414897#0 -285245012#8 -285245012#7 -285245012#6 -285245012#5 -285245012#4 -285245012#3 -285245012#2 -285245012#1 -285245012#0 -359360786#3 -359360786#2 -359360786#1 -359360786#0 -46414896#0 28863723 592989458 591662494 527575288 591087047 28915332#0 28915332#1 28915340 -76204595 -183427325#1 -183427325#0 -684416867 402955429#0 402955429#1 402955430 620769633#0 620769633#1 28915315#0 28915315#1 579843062 579843062.89 569419830 28915282 566353521 -40489981 566353522 414005973#0 414005973#1 40149687 531720062 528688433 28916022#0 28916022#1 579843060 28930214 531720065 31406205#0 31406205#1 31406205#2 40149001#0 40149001#1 414449168 301280623#0 301280623#1 E7 565297457 577827314 580966919 312190306 292832772#0 292832772#1 292832772#2 292832772#3 292832772#4 183427326 183427325#0 183427325#1 28915341 -28915340 581551808 31990475 566072489 565427013 28863663 28863725#0 28863725#1 46414896#0 46414896#1 359360786#1 359360786#2 359360786#3 285245012#0 285245012#1 285245012#2 285245012#3 285245012#4 285245012#5 285245012#6 285245012#7 285245012#8 46414898 46414897#1 46414897#2 46414897#3 46414897#4 46414897#5 46414897#6 46414900#1 45822991#0 45822991#1 285244803#0 285244803#1 285244803#2 685442884#0 685442884#1 566255286#0 566255286#1 566255286#2 566255286#3 566255286#4 60334478#0 60334478#1 60334478#2 60334478#3 60334478#4 60334478#5 60334478#6 60334478#7 60334478#8 60334478#9 60334478#10 60334478#11 60334478#12 576398418#0 576398418#1" color="0,0,129">
        <stop busStop="bs_4697_2_1" duration="60.00"/>
        <stop busStop="bs_4030_1" duration="60.00"/>
        <stop busStop="bs_4696_1" duration="60.00"/>
        <stop busStop="bs_2812_1" duration="60.00"/>
        <stop busStop="bs_2812_4" duration="60.00"/>
        <stop busStop="bs_4698_1" duration="60.00"/>
        <stop busStop="bs_4697_2" duration="60.00"/>
        <stop busStop="bs_4591_1" duration="60.00"/>
        <param key="primus" value="Ambohimanarina"/>
        <param key="terminus" value="Soarano"/>
    </route>
    <route id="tj_106_Anosivavaka" edges="28823745 28823746 28823747 28823748#1 28823752 729835894 522478696 731773913#0 731773913#1 729835891 729835892 576744164#1 577455707 726876396#0 726876396#1 732384314 303455652 303455651 303455650#0 303455650#1 303455650#2 303455650#3 28823771 910533995 732507983#0 732507983#1 304652153#0 304652153#1 304652153#2 566072497 28863232#0 28863232#0.66 28863232#0.110 28863232#1 28863232#2 28863234#0 28863234#1 28863234#2 28863488 28863505 83811756 591797561#1 591797561#2 591797561#3 591797561#4 591797561#5 579843063 303459211#0 303459211#1 303459211#2 28915184#0 28915184#1 28915204#1 580966919 312190306 292832772#0 292832772#1 292832772#2 292832772#3 292832772#4 183427327 402955429#0 402955429#1 402955430 620769633#0 620769633#1 28915315#0 28915315#1 579843062 579843062.89 569419830 28915282 566353521 28929217#0 28929217#1 40489799 40489799.85 -566343985 -28929223#0 531720074 576696072 380654513 591357140 591357140.51 591357140.97 28928987 28928987.33 28928987.80 28915927 48978596#1 967778507#0 967778507#1 563867088 564233532 564233532.55 564233532.99 28915979#0 28915979#1 28915979#2 531720062 528688433 28916022#0 28916022#1 579843060 28930214 531720065 31406205#0 31406205#1 31406205#2 40149001#0 40149001#1 414449168 301280623#0 301280623#1 E7 565297457 910753966#0 910753966#1 301280616#1 28915187 577827313 76701698#0 76701698#1 76701772#0 1115123951 28884651#1 E12 45822990#1 311385272#0 311385272#1 311385272#2 311385272#3 311385272#4 311385272#5 311385272#6 311385272#7 311385272#8 303459216 303459215#0 303459215#1 527575285#0 527575285#1 28863240#0 28863240#1 28863240#2 28863240#3 581551799 581551802 527575284 527575283 E13 303455656#0 303455656#1 303455656#2 303455656#3 303455656#4 303455656#5 303455656#6 732507984 910533996 732507982 304652154 303459681#0 303459681#1 303459681#2 303459681#3 577830093 303455655 -707056102#3 -707056102#2 -707056102#1 -707056102#0 -28930701#3 -28930701#2 -28930701#1 -28930701#0 -110767114 28930698#0 28930698#1 28930698#3 28930698#5 28930698#7 28930698#8 28930698#9 28930698#10 729842707 910735205 729835895 729835893 -729835894 -28823752 -28823748#1 -28823748#0 -28823746 -28823745" color="0,0,129">
        <stop busStop="bs_3050_3" duration="60.00"/>
        <stop busStop="bs_1012886" duration="60.00"/>
        <stop busStop="bs_4030_1" duration="60.00"/>
        <stop busStop="bs_1019799" duration="60.00"/>
        <stop busStop="bs_1017140" duration="60.00"/>
        <stop busStop="ter_10128921" duration="60.00"/>
        <stop busStop="bs_10156421" duration="60.00"/>
        <stop busStop="bs_2879" duration="60.00"/>
        <stop busStop="bs_12_1" duration="60.00"/>
        <stop busStop="bs_3015_0" duration="60.00"/>
        <stop busStop="bs_5802_1" duration="60.00"/>
        <stop busStop="bs_3056_6" duration="60.00"/>
        <stop busStop="bs_3081_0" duration="60.00"/>
        <stop busStop="bs_2801_2_1" duration="60.00"/>
        <stop busStop="bs_2801_0" duration="60.00"/>
        <stop busStop="bs_1114_0" duration="60.00"/>
        <param key="primus" value="Anosivavaka"/>
        <param key="terminus" value="Soarano"/>
    </route>